Info: SIMULATION PARAMETERS:
Info: TIMESTEP               1
Info: NUMBER OF STEPS        0
Info: STEPS PER CYCLE        10
Info: PERIODIC CELL BASIS 1  61.513 0 0
Info: PERIODIC CELL BASIS 2  0 63.74 0
Info: PERIODIC CELL BASIS 3  0 0 51.225
Info: PERIODIC CELL CENTER   19.3088 25.5217 5.08934
Info: WRAPPING WATERS AROUND PERIODIC BOUNDARIES ON OUTPUT.
Info: WRAPPING ALL CLUSTERS AROUND PERIODIC BOUNDARIES ON OUTPUT.
Info: FIRST LDB TIMESTEP     50
Info: LAST LDB TIMESTEP     -1
Info: HOM BACKGROUND SCALING 1
Info: PME BACKGROUND SCALING 1
Info: REMOVING LOAD FROM NODE 0
Info: REMOVING PATCHES FROM PROCESSOR 0
Info: MIN ATOMS PER PATCH    40
Info: INITIAL TEMPERATURE    0
Info: CENTER OF MASS MOVING INITIALLY? NO
Info: DIELECTRIC             1
Info: EXCLUDE                SCALED ONE-FOUR
Info: 1-4 ELECTROSTATICS SCALED BY 1
Info: MODIFIED 1-4 VDW PARAMETERS WILL BE USED
Info: DCD FILENAME           ./tc5b_wb_sa.dcd
Info: DCD FREQUENCY          10000
Info: DCD FIRST STEP         10000
Info: DCD FILE WILL CONTAIN UNIT CELL DATA
Info: XST FILENAME           ./tc5b_wb_sa.xst
Info: XST FREQUENCY          10000
Info: NO VELOCITY DCD OUTPUT
Info: NO FORCE DCD OUTPUT
Info: OUTPUT FILENAME        ./tc5b_wb_sa
Info: RESTART FILENAME       ./tc5b_wb_sa.restart
Info: RESTART FREQUENCY      10000
Info: BINARY RESTART FILES WILL BE USED
Info: SWITCHING ACTIVE
Info: SWITCHING ON           10
Info: SWITCHING OFF          12
Info: PAIRLIST DISTANCE      13.5
Info: PAIRLIST SHRINK RATE   0.01
Info: PAIRLIST GROW RATE     0.01
Info: PAIRLIST TRIGGER       0.3
Info: PAIRLISTS PER CYCLE    2
Info: PAIRLISTS ENABLED
Info: MARGIN                 0
Info: HYDROGEN GROUP CUTOFF  2.5
Info: PATCH DIMENSION        16
Info: ENERGY OUTPUT STEPS    10000
Info: CROSSTERM ENERGY INCLUDED IN DIHEDRAL
Info: TIMING OUTPUT STEPS    100000
Info: PRESSURE OUTPUT STEPS  10000
Info: LANGEVIN DYNAMICS ACTIVE
Info: LANGEVIN TEMPERATURE   0
Info: LANGEVIN USING BBK INTEGRATOR
Info: LANGEVIN DAMPING COEFFICIENT IS 5 INVERSE PS
Info: LANGEVIN DYNAMICS NOT APPLIED TO HYDROGENS
Info: PARTICLE MESH EWALD (PME) ACTIVE
Info: PME TOLERANCE               1e-06
Info: PME EWALD COEFFICIENT       0.257952
Info: PME INTERPOLATION ORDER     4
Info: PME GRID DIMENSIONS         64 64 64
Info: PME MAXIMUM GRID SPACING    1.5
Info: FULL ELECTROSTATIC EVALUATION FREQUENCY      2
Info: USING VERLET I (r-RESPA) MTS SCHEME.
Info: C1 SPLITTING OF LONG RANGE ELECTROSTATICS
Info: PLACING ATOMS IN PATCHES BY HYDROGEN GROUPS
Info: RIGID BONDS TO HYDROGEN : WATER
Info:         ERROR TOLERANCE : 1e-08
Info:          MAX ITERATIONS : 100
Info: RIGID WATER USING SETTLE ALGORITHM
Info: RANDOM NUMBER SEED     1553628826
Info: USE HYDROGEN BONDS?    NO
Info: COORDINATE PDB         ../tc5b_wb.pdb
Info: STRUCTURE FILE         ../tc5b_wb.psf
Info: PARAMETER file: CHARMM format!
Info: PARAMETERS             ../par_all27_prot_lipid.prm
Info: USING ARITHMETIC MEAN TO COMBINE L-J SIGMA PARAMETERS
Info: BINARY COORDINATES     ../1_min/tc5b_wb_min.restart.coor
Info: SUMMARY OF PARAMETERS:
Info: 179 BONDS
Info: 450 ANGLES
Info: 566 DIHEDRAL
Info: 46 IMPROPER
Info: 6 CROSSTERM
Info: 119 VDW
Info: 0 VDW_PAIRS
Info: 0 NBTHOLE_PAIRS
Info: STRUCTURE SUMMARY:
Info: 18869 ATOMS
Info: 12686 BONDS
Info: 6753 ANGLES
Info: 843 DIHEDRALS
Info: 49 IMPROPERS
Info: 18 CROSSTERMS
Info: 0 EXCLUSIONS
Info: 18564 RIGID BONDS
Info: 38043 DEGREES OF FREEDOM
Info: 6343 HYDROGEN GROUPS
Info: 4 ATOMS IN LARGEST HYDROGEN GROUP
Info: 6343 MIGRATION GROUPS
Info: 4 ATOMS IN LARGEST MIGRATION GROUP
Info: TOTAL MASS = 113685 amu
Info: TOTAL CHARGE = 1.88127e-07 e
Info: MASS DENSITY = 0.939944 g/cm^3
Info: ATOM DENSITY = 0.0939481 atoms/A^3
Info: ADDED 20251 IMPLICIT EXCLUSIONS
Info: NONBONDED TABLE R-SQUARED SPACING: 0.0625
Info: NONBONDED TABLE SIZE: 769 POINTS
Info: REMOVING COM VELOCITY 0 0 0
TCL: Setting parameter reassignTemp to 0
TCL: Setting parameter langevinTemp to 0
TCL: Running for 2000 steps
ETITLE: TS BOND ANGLE DIHED IMPRP ELECT VDW BOUNDARY MISC KINETIC TOTAL TEMP POTENTIAL TOTAL3 TEMPAVG PRESSURE GPRESSURE VOLUME PRESSAVG GPRESSAVG
ENERGY: 0 19.4539 67.5393 76.8021 1.4052 -87268.3810 11806.8081 0.0000 0.0000 0.0000 -75296.3723 0.0000 -75296.3723 -75296.3233 0.0000 -1453.7966 -1420.8384 200844.9532 -1453.7966 -1420.8384
TCL: Setting parameter reassignTemp to 7
TCL: Setting parameter langevinTemp to 7
TCL: Running for 2000 steps
TCL: Setting parameter reassignTemp to 14
TCL: Setting parameter langevinTemp to 14
TCL: Running for 2000 steps
TCL: Setting parameter reassignTemp to 21
TCL: Setting parameter langevinTemp to 21
TCL: Running for 2000 steps
TCL: Setting parameter reassignTemp to 28
TCL: Setting parameter langevinTemp to 28
TCL: Running for 2000 steps
ETITLE: TS BOND ANGLE DIHED IMPRP ELECT VDW BOUNDARY MISC KINETIC TOTAL TEMP POTENTIAL TOTAL3 TEMPAVG PRESSURE GPRESSURE VOLUME PRESSAVG GPRESSAVG
ENERGY: 10000 26.6015 79.0481 71.2759 1.8552 -85647.9077 10359.4209 0.0000 0.0000 912.6847 -74197.0214 24.1455 -75109.7061 -74197.3699 10.5648 -3234.2797 -3182.9717 200844.9532 -3281.6450 -3281.5909
TCL: Setting parameter reassignTemp to 35
TCL: Setting parameter langevinTemp to 35
TCL: Running for 2000 steps
ETITLE: TS BOND ANGLE DIHED IMPRP ELECT VDW BOUNDARY MISC KINETIC TOTAL TEMP POTENTIAL TOTAL3 TEMPAVG PRESSURE GPRESSURE VOLUME PRESSAVG GPRESSAVG
ENERGY: 10000 26.6015 79.0481 71.2759 1.8552 -85647.9077 10359.4209 0.0000 0.0000 912.6056 -74197.1005 24.1434 -75109.7061 -74196.6310 24.1434 -3234.0874 -3183.2118 200844.9532 -3234.0874 -3183.2118
TCL: Setting parameter reassignTemp to 42
TCL: Setting parameter langevinTemp to 42
TCL: Running for 2000 steps
TCL: Setting parameter reassignTemp to 49
TCL: Setting parameter langevinTemp to 49
TCL: Running for 2000 steps
TCL: Setting parameter reassignTemp to 56
TCL: Setting parameter langevinTemp to 56
TCL: Running for 2000 steps
TCL: Setting parameter reassignTemp to 63
TCL: Setting parameter langevinTemp to 63
TCL: Running for 2000 steps
ETITLE: TS BOND ANGLE DIHED IMPRP ELECT VDW BOUNDARY MISC KINETIC TOTAL TEMP POTENTIAL TOTAL3 TEMPAVG PRESSURE GPRESSURE VOLUME PRESSAVG GPRESSAVG
ENERGY: 20000 38.1095 95.3317 69.9142 2.3931 -84738.8999 10367.8226 0.0000 0.0000 2274.1100 -71891.2188 60.1627 -74165.3289 -71889.3676 43.4848 -2714.6074 -2657.0947 200844.9532 -2900.6854 -2900.7122
TCL: Setting parameter reassignTemp to 70
TCL: Setting parameter langevinTemp to 70
TCL: Running for 2000 steps
ETITLE: TS BOND ANGLE DIHED IMPRP ELECT VDW BOUNDARY MISC KINETIC TOTAL TEMP POTENTIAL TOTAL3 TEMPAVG PRESSURE GPRESSURE VOLUME PRESSAVG GPRESSAVG
ENERGY: 20000 38.1095 95.3317 69.9142 2.3931 -84738.8999 10367.8226 0.0000 0.0000 2273.9342 -71891.3946 60.1580 -74165.3289 -71889.8930 60.1580 -2717.5336 -2657.0601 200844.9532 -2717.5336 -2657.0601
TCL: Setting parameter reassignTemp to 77
TCL: Setting parameter langevinTemp to 77
TCL: Running for 2000 steps
TCL: Setting parameter reassignTemp to 84
TCL: Setting parameter langevinTemp to 84
TCL: Running for 2000 steps
TCL: Setting parameter reassignTemp to 91
TCL: Setting parameter langevinTemp to 91
TCL: Running for 2000 steps
TCL: Setting parameter reassignTemp to 98
TCL: Setting parameter langevinTemp to 98
TCL: Running for 2000 steps
ETITLE: TS BOND ANGLE DIHED IMPRP ELECT VDW BOUNDARY MISC KINETIC TOTAL TEMP POTENTIAL TOTAL3 TEMPAVG PRESSURE GPRESSURE VOLUME PRESSAVG GPRESSAVG
ENERGY: 30000 44.6006 106.0123 84.8722 4.5616 -83642.6802 10230.3707 0.0000 0.0000 3626.3914 -69545.8714 95.9379 -73172.2628 -69543.1643 79.2143 -2364.2763 -2322.0857 200844.9532 -2401.2956 -2401.2873
TCL: Setting parameter reassignTemp to 105
TCL: Setting parameter langevinTemp to 105
TCL: Running for 2000 steps
ETITLE: TS BOND ANGLE DIHED IMPRP ELECT VDW BOUNDARY MISC KINETIC TOTAL TEMP POTENTIAL TOTAL3 TEMPAVG PRESSURE GPRESSURE VOLUME PRESSAVG GPRESSAVG
ENERGY: 30000 44.6006 106.0123 84.8722 4.5616 -83642.6802 10230.3707 0.0000 0.0000 3626.1135 -69546.1493 95.9306 -73172.2628 -69544.0564 95.9306 -2362.2848 -2321.9464 200844.9532 -2362.2848 -2321.9464
TCL: Setting parameter reassignTemp to 112
TCL: Setting parameter langevinTemp to 112
TCL: Running for 2000 steps
TCL: Setting parameter reassignTemp to 119
TCL: Setting parameter langevinTemp to 119
TCL: Running for 2000 steps
TCL: Setting parameter reassignTemp to 126
TCL: Setting parameter langevinTemp to 126
TCL: Running for 2000 steps
TCL: Setting parameter reassignTemp to 133
TCL: Setting parameter langevinTemp to 133
TCL: Running for 2000 steps
ETITLE: TS BOND ANGLE DIHED IMPRP ELECT VDW BOUNDARY MISC KINETIC TOTAL TEMP POTENTIAL TOTAL3 TEMPAVG PRESSURE GPRESSURE VOLUME PRESSAVG GPRESSAVG
ENERGY: 40000 63.5214 111.5411 81.2215 3.5681 -82235.4290 9948.2858 0.0000 0.0000 4906.7664 -67120.5248 129.8109 -72027.2913 -67114.7888 114.0303 -2103.3903 -2125.9058 200844.9532 -2117.5747 -2117.6396
TCL: Setting parameter reassignTemp to 140
TCL: Setting parameter langevinTemp to 140
TCL: Running for 2000 steps
ETITLE: TS BOND ANGLE DIHED IMPRP ELECT VDW BOUNDARY MISC KINETIC TOTAL TEMP POTENTIAL TOTAL3 TEMPAVG PRESSURE GPRESSURE VOLUME PRESSAVG GPRESSAVG
ENERGY: 40000 63.5214 111.5411 81.2215 3.5681 -82235.4290 9948.2858 0.0000 0.0000 4906.3951 -67120.8962 129.8010 -72027.2913 -67117.9258 129.8010 -2109.6851 -2125.3243 200844.9532 -2109.6851 -2125.3243
TCL: Setting parameter reassignTemp to 147
TCL: Setting parameter langevinTemp to 147
TCL: Running for 2000 steps
TCL: Setting parameter reassignTemp to 154
TCL: Setting parameter langevinTemp to 154
TCL: Running for 2000 steps
TCL: Setting parameter reassignTemp to 161
TCL: Setting parameter langevinTemp to 161
TCL: Running for 2000 steps
TCL: Setting parameter reassignTemp to 168
TCL: Setting parameter langevinTemp to 168
TCL: Running for 2000 steps
ETITLE: TS BOND ANGLE DIHED IMPRP ELECT VDW BOUNDARY MISC KINETIC TOTAL TEMP POTENTIAL TOTAL3 TEMPAVG PRESSURE GPRESSURE VOLUME PRESSAVG GPRESSAVG
ENERGY: 50000 64.5270 130.0042 85.2314 5.5767 -80440.7263 9540.5176 0.0000 0.0000 6265.0341 -64349.8354 165.7445 -70614.8695 -64347.5048 149.6636 -1917.6560 -1890.9155 200844.9532 -1893.2643 -1893.2128
TCL: Setting parameter reassignTemp to 175
TCL: Setting parameter langevinTemp to 175
TCL: Running for 2000 steps
ETITLE: TS BOND ANGLE DIHED IMPRP ELECT VDW BOUNDARY MISC KINETIC TOTAL TEMP POTENTIAL TOTAL3 TEMPAVG PRESSURE GPRESSURE VOLUME PRESSAVG GPRESSAVG
ENERGY: 50000 64.5270 130.0042 85.2314 5.5767 -80440.7263 9540.5176 0.0000 0.0000 6264.5570 -64350.3125 165.7319 -70614.8695 -64346.2794 165.7319 -1918.8274 -1891.4070 200844.9532 -1918.8274 -1891.4070
TCL: Setting parameter reassignTemp to 182
TCL: Setting parameter langevinTemp to 182
TCL: Running for 2000 steps
TCL: Setting parameter reassignTemp to 189
TCL: Setting parameter langevinTemp to 189
TCL: Running for 2000 steps
TCL: Setting parameter reassignTemp to 196
TCL: Setting parameter langevinTemp to 196
TCL: Running for 2000 steps
TCL: Setting parameter reassignTemp to 203
TCL: Setting parameter langevinTemp to 203
TCL: Running for 2000 steps
ETITLE: TS BOND ANGLE DIHED IMPRP ELECT VDW BOUNDARY MISC KINETIC TOTAL TEMP POTENTIAL TOTAL3 TEMPAVG PRESSURE GPRESSURE VOLUME PRESSAVG GPRESSAVG
ENERGY: 60000 86.0777 136.1001 94.4357 7.6644 -78078.0055 9098.3713 0.0000 0.0000 7634.3900 -61020.9663 201.9714 -68655.3563 -61019.7298 184.1079 -1544.4535 -1552.4558 200844.9532 -1732.0125 -1731.9945
TCL: Setting parameter reassignTemp to 210
TCL: Setting parameter langevinTemp to 210
TCL: Running for 2000 steps
ETITLE: TS BOND ANGLE DIHED IMPRP ELECT VDW BOUNDARY MISC KINETIC TOTAL TEMP POTENTIAL TOTAL3 TEMPAVG PRESSURE GPRESSURE VOLUME PRESSAVG GPRESSAVG
ENERGY: 60000 86.0777 136.1001 94.4357 7.6644 -78078.0055 9098.3713 0.0000 0.0000 7633.8190 -61021.5373 201.9563 -68655.3563 -61016.7055 201.9563 -1544.0442 -1553.2565 200844.9532 -1544.0442 -1553.2565
TCL: Setting parameter reassignTemp to 217
TCL: Setting parameter langevinTemp to 217
TCL: Running for 2000 steps
TCL: Setting parameter reassignTemp to 224
TCL: Setting parameter langevinTemp to 224
TCL: Running for 2000 steps
TCL: Setting parameter reassignTemp to 231
TCL: Setting parameter langevinTemp to 231
TCL: Running for 2000 steps
TCL: Setting parameter reassignTemp to 238
TCL: Setting parameter langevinTemp to 238
TCL: Running for 2000 steps
ETITLE: TS BOND ANGLE DIHED IMPRP ELECT VDW BOUNDARY MISC KINETIC TOTAL TEMP POTENTIAL TOTAL3 TEMPAVG PRESSURE GPRESSURE VOLUME PRESSAVG GPRESSAVG
ENERGY: 70000 104.2760 154.5864 93.6991 6.8119 -74002.1176 7920.0787 0.0000 0.0000 8854.6122 -56868.0534 234.2530 -65722.6657 -56860.6574 219.8256 -1744.7725 -1724.5488 200844.9532 -1624.3943 -1624.4743
TCL: Setting parameter reassignTemp to 245
TCL: Setting parameter langevinTemp to 245
TCL: Running for 2000 steps
ETITLE: TS BOND ANGLE DIHED IMPRP ELECT VDW BOUNDARY MISC KINETIC TOTAL TEMP POTENTIAL TOTAL3 TEMPAVG PRESSURE GPRESSURE VOLUME PRESSAVG GPRESSAVG
ENERGY: 70000 104.2760 154.5864 93.6991 6.8119 -74002.1176 7920.0787 0.0000 0.0000 8853.9286 -56868.7370 234.2349 -65722.6657 -56863.3049 234.2349 -1763.2727 -1724.4367 200844.9532 -1763.2727 -1724.4367
TCL: Setting parameter reassignTemp to 252
TCL: Setting parameter langevinTemp to 252
TCL: Running for 2000 steps
TCL: Setting parameter reassignTemp to 259
TCL: Setting parameter langevinTemp to 259
TCL: Running for 2000 steps
TCL: Setting parameter reassignTemp to 266
TCL: Setting parameter langevinTemp to 266
TCL: Running for 2000 steps
TCL: Setting parameter reassignTemp to 273
TCL: Setting parameter langevinTemp to 273
TCL: Running for 2000 steps
ETITLE: TS BOND ANGLE DIHED IMPRP ELECT VDW BOUNDARY MISC KINETIC TOTAL TEMP POTENTIAL TOTAL3 TEMPAVG PRESSURE GPRESSURE VOLUME PRESSAVG GPRESSAVG
ENERGY: 80000 103.9763 169.7401 85.1074 7.1172 -69452.3720 6801.8664 0.0000 0.0000 10324.3570 -51960.2075 273.1358 -62284.5645 -51954.1384 254.5246 -1458.1043 -1387.4466 200844.9532 -1605.8932 -1605.7942
TCL: Setting parameter reassignTemp to 280
TCL: Setting parameter langevinTemp to 280
TCL: Running for 2000 steps
ETITLE: TS BOND ANGLE DIHED IMPRP ELECT VDW BOUNDARY MISC KINETIC TOTAL TEMP POTENTIAL TOTAL3 TEMPAVG PRESSURE GPRESSURE VOLUME PRESSAVG GPRESSAVG
ENERGY: 80000 103.9763 169.7401 85.1074 7.1172 -69452.3719 6801.8664 0.0000 0.0000 10323.5970 -51960.9676 273.1157 -62284.5645 -51956.6323 273.1157 -1451.5973 -1387.2106 200844.9532 -1451.5973 -1387.2106
TCL: Setting parameter reassignTemp to 287
TCL: Setting parameter langevinTemp to 287
TCL: Running for 2000 steps
TCL: Setting parameter reassignTemp to 294
TCL: Setting parameter langevinTemp to 294
TCL: Running for 2000 steps
TCL: Setting parameter reassignTemp to 301
TCL: Setting parameter langevinTemp to 301
TCL: Running for 2000 steps
TCL: Setting parameter reassignTemp to 308
TCL: Setting parameter langevinTemp to 308
TCL: Running for 2000 steps
ETITLE: TS BOND ANGLE DIHED IMPRP ELECT VDW BOUNDARY MISC KINETIC TOTAL TEMP POTENTIAL TOTAL3 TEMPAVG PRESSURE GPRESSURE VOLUME PRESSAVG GPRESSAVG
ENERGY: 90000 115.5556 189.9674 96.4712 8.0911 -65834.3707 5986.1576 0.0000 0.0000 11513.2394 -47924.8883 304.5883 -59438.1277 -47920.0856 290.0303 -1020.4138 -1008.9825 200844.9532 -1198.9485 -1198.9779
TCL: Setting parameter reassignTemp to 315
TCL: Setting parameter langevinTemp to 315
TCL: Running for 2000 steps
ETITLE: TS BOND ANGLE DIHED IMPRP ELECT VDW BOUNDARY MISC KINETIC TOTAL TEMP POTENTIAL TOTAL3 TEMPAVG PRESSURE GPRESSURE VOLUME PRESSAVG GPRESSAVG
ENERGY: 90000 115.5556 189.9674 96.4712 8.0911 -65834.3707 5986.1576 0.0000 0.0000 11512.3742 -47925.7536 304.5654 -59438.1277 -47918.7997 304.5654 -1029.7698 -1009.4799 200844.9532 -1029.7698 -1009.4799
TCL: Setting parameter reassignTemp to 322
TCL: Setting parameter langevinTemp to 322
TCL: Running for 2000 steps
TCL: Setting parameter reassignTemp to 329
TCL: Setting parameter langevinTemp to 329
TCL: Running for 2000 steps
TCL: Setting parameter reassignTemp to 336
TCL: Setting parameter langevinTemp to 336
TCL: Running for 2000 steps
TCL: Setting parameter reassignTemp to 343
TCL: Setting parameter langevinTemp to 343
TCL: Running for 2000 steps
ETITLE: TS BOND ANGLE DIHED IMPRP ELECT VDW BOUNDARY MISC KINETIC TOTAL TEMP POTENTIAL TOTAL3 TEMPAVG PRESSURE GPRESSURE VOLUME PRESSAVG GPRESSAVG
ENERGY: 100000 105.2542 205.1631 102.0682 10.1176 -62893.1487 5387.9677 0.0000 0.0000 13038.1483 -44044.4296 344.9305 -57082.5779 -44042.4208 326.5562 -682.7690 -640.1581 200844.9532 -679.6775 -679.6349
TCL: Setting parameter reassignTemp to 350
TCL: Setting parameter langevinTemp to 350
TCL: Running for 2000 steps
ETITLE: TS BOND ANGLE DIHED IMPRP ELECT VDW BOUNDARY MISC KINETIC TOTAL TEMP POTENTIAL TOTAL3 TEMPAVG PRESSURE GPRESSURE VOLUME PRESSAVG GPRESSAVG
ENERGY: 100000 105.2542 205.1631 102.0682 10.1176 -62893.1487 5387.9677 0.0000 0.0000 13037.1634 -44045.4145 344.9044 -57082.5779 -44038.3551 344.9044 -681.8606 -641.1096 200844.9532 -681.8606 -641.1096
TCL: Running for 100000 steps
ETITLE: TS BOND ANGLE DIHED IMPRP ELECT VDW BOUNDARY MISC KINETIC TOTAL TEMP POTENTIAL TOTAL3 TEMPAVG PRESSURE GPRESSURE VOLUME PRESSAVG GPRESSAVG
ENERGY: 110000 133.1590 224.5649 98.2341 8.0708 -62435.0759 5488.6272 0.0000 0.0000 13273.0919 -43209.3280 351.1460 -56482.4199 -43195.0879 350.1942 -264.1887 -252.9751 200844.9532 -372.0403 -372.0678
ENERGY: 130000 127.7390 210.0447 93.1911 9.4490 -62070.7523 5189.0775 0.0000 0.0000 13156.5223 -43284.7289 348.0621 -56441.2512 -43269.9730 348.3654 -647.8829 -642.6110 200844.9532 -402.9874 -402.8891
ENERGY: 150000 114.7922 237.6262 96.0816 8.9959 -63024.4803 5753.6544 0.0000 0.0000 13322.3237 -43491.0064 352.4485 -56813.3301 -43478.9190 350.1166 7.5256 -2.5695 200844.9532 -398.0634 -398.1504
ENERGY: 160000 111.8114 202.0287 85.0488 10.5128 -62724.1204 5596.3195 0.0000 0.0000 12989.9744 -43728.4250 343.6560 -56718.3994 -43719.6615 349.2656 -335.0880 -268.9253 200844.9532 -370.1416 -370.1060
ENERGY: 180000 109.7845 211.1594 78.5169 10.5636 -62707.3386 5507.0733 0.0000 0.0000 13262.0986 -43528.1423 350.8552 -56790.2409 -43522.4948 349.4799 -361.5097 -301.2894 200844.9532 -400.4382 -400.4492
ENERGY: 200000 115.6675 202.8893 73.7739 12.9079 -62615.9605 5444.3343 0.0000 0.0000 13232.1436 -43534.2439 350.0627 -56766.3876 -43525.4544 350.4528 -482.0617 -474.5519 200844.9532 -388.5272 -388.4586
TCL: Setting parameter reassignTemp to 350
TCL: Setting parameter langevinTemp to 350
TCL: Running for 4000 steps
TCL: Setting parameter reassignTemp to 349
TCL: Setting parameter langevinTemp to 349
TCL: Running for 4000 steps
ETITLE: TS BOND ANGLE DIHED IMPRP ELECT VDW BOUNDARY MISC KINETIC TOTAL TEMP POTENTIAL TOTAL3 TEMPAVG PRESSURE GPRESSURE VOLUME PRESSAVG GPRESSAVG
ENERGY: 210000 117.4369 200.6187 85.9057 12.4262 -62661.2381 5490.6583 0.0000 0.0000 13193.3555 -43560.8369 349.0365 -56754.1924 -43553.3860 349.3579 -432.7796 -368.5627 200844.9532 -408.4296 -408.3576
TCL: Setting parameter reassignTemp to 348
TCL: Setting parameter langevinTemp to 348
TCL: Running for 4000 steps
ETITLE: TS BOND ANGLE DIHED IMPRP ELECT VDW BOUNDARY MISC KINETIC TOTAL TEMP POTENTIAL TOTAL3 TEMPAVG PRESSURE GPRESSURE VOLUME PRESSAVG GPRESSAVG
ENERGY: 210000 117.4369 200.6187 85.9057 12.4262 -62661.2381 5490.6583 0.0000 0.0000 13192.3396 -43561.8528 349.0097 -56754.1924 -43555.5630 349.0097 -427.8468 -368.4261 200844.9532 -427.8468 -368.4261
TCL: Setting parameter reassignTemp to 347
TCL: Setting parameter langevinTemp to 347
TCL: Running for 4000 steps
TCL: Setting parameter reassignTemp to 346
TCL: Setting parameter langevinTemp to 346
TCL: Running for 4000 steps
ETITLE: TS BOND ANGLE DIHED IMPRP ELECT VDW BOUNDARY MISC KINETIC TOTAL TEMP POTENTIAL TOTAL3 TEMPAVG PRESSURE GPRESSURE VOLUME PRESSAVG GPRESSAVG
ENERGY: 220000 141.7750 198.8522 83.8619 11.9580 -62648.8957 5267.9709 0.0000 0.0000 13060.8686 -43883.6091 345.5315 -56944.4776 -43875.3082 347.9529 -820.1067 -816.5492 200844.9532 -444.5918 -444.7245
TCL: Setting parameter reassignTemp to 345
TCL: Setting parameter langevinTemp to 345
TCL: Running for 4000 steps
TCL: Setting parameter reassignTemp to 344
TCL: Setting parameter langevinTemp to 344
TCL: Running for 4000 steps
ETITLE: TS BOND ANGLE DIHED IMPRP ELECT VDW BOUNDARY MISC KINETIC TOTAL TEMP POTENTIAL TOTAL3 TEMPAVG PRESSURE GPRESSURE VOLUME PRESSAVG GPRESSAVG
ENERGY: 230000 131.0482 205.8777 78.9278 11.6073 -62898.1106 5463.4139 0.0000 0.0000 12795.0564 -44212.1793 338.4993 -57007.2357 -44200.3124 344.7691 -717.0079 -680.7473 200844.9532 -443.7129 -443.6989
TCL: Setting parameter reassignTemp to 343
TCL: Setting parameter langevinTemp to 343
TCL: Running for 4000 steps
ETITLE: TS BOND ANGLE DIHED IMPRP ELECT VDW BOUNDARY MISC KINETIC TOTAL TEMP POTENTIAL TOTAL3 TEMPAVG PRESSURE GPRESSURE VOLUME PRESSAVG GPRESSAVG
ENERGY: 230000 131.0482 205.8777 78.9278 11.6073 -62898.1106 5463.4139 0.0000 0.0000 12794.0694 -44213.1663 338.4732 -57007.2357 -44205.8326 338.4732 -704.0247 -680.0376 200844.9532 -704.0247 -680.0376
TCL: Setting parameter reassignTemp to 342
TCL: Setting parameter langevinTemp to 342
TCL: Running for 4000 steps
TCL: Setting parameter reassignTemp to 341
TCL: Setting parameter langevinTemp to 341
TCL: Running for 4000 steps
ETITLE: TS BOND ANGLE DIHED IMPRP ELECT VDW BOUNDARY MISC KINETIC TOTAL TEMP POTENTIAL TOTAL3 TEMPAVG PRESSURE GPRESSURE VOLUME PRESSAVG GPRESSAVG
ENERGY: 240000 122.2320 211.1016 69.4173 11.2843 -63389.3171 5552.9175 0.0000 0.0000 12747.9101 -44674.4542 337.2521 -57422.3643 -44668.9721 341.1605 -580.2989 -549.7985 200844.9532 -495.3826 -495.3716
TCL: Setting parameter reassignTemp to 340
TCL: Setting parameter langevinTemp to 340
TCL: Running for 4000 steps
TCL: Setting parameter reassignTemp to 339
TCL: Setting parameter langevinTemp to 339
TCL: Running for 4000 steps
ETITLE: TS BOND ANGLE DIHED IMPRP ELECT VDW BOUNDARY MISC KINETIC TOTAL TEMP POTENTIAL TOTAL3 TEMPAVG PRESSURE GPRESSURE VOLUME PRESSAVG GPRESSAVG
ENERGY: 250000 118.4798 217.1591 93.5391 9.9460 -63508.1785 5594.6494 0.0000 0.0000 12826.2705 -44648.1345 339.3251 -57474.4050 -44639.6192 339.9437 -609.1768 -631.5971 200844.9532 -568.5530 -568.6724
TCL: Setting parameter reassignTemp to 338
TCL: Setting parameter langevinTemp to 338
TCL: Running for 4000 steps
ETITLE: TS BOND ANGLE DIHED IMPRP ELECT VDW BOUNDARY MISC KINETIC TOTAL TEMP POTENTIAL TOTAL3 TEMPAVG PRESSURE GPRESSURE VOLUME PRESSAVG GPRESSAVG
ENERGY: 250000 118.4798 217.1591 93.5391 9.9460 -63508.1785 5594.6494 0.0000 0.0000 12825.3025 -44649.1025 339.2995 -57474.4050 -44640.4978 339.2995 -611.1256 -631.5178 200844.9532 -611.1256 -631.5178
TCL: Setting parameter reassignTemp to 337
TCL: Setting parameter langevinTemp to 337
TCL: Running for 4000 steps
TCL: Setting parameter reassignTemp to 336
TCL: Setting parameter langevinTemp to 336
TCL: Running for 4000 steps
ETITLE: TS BOND ANGLE DIHED IMPRP ELECT VDW BOUNDARY MISC KINETIC TOTAL TEMP POTENTIAL TOTAL3 TEMPAVG PRESSURE GPRESSURE VOLUME PRESSAVG GPRESSAVG
ENERGY: 260000 121.3895 203.9882 81.0378 10.2129 -63458.2525 5556.8414 0.0000 0.0000 12652.1461 -44832.6367 334.7186 -57484.7828 -44832.5113 337.1030 -652.0842 -598.1190 200844.9532 -598.7707 -598.8156
TCL: Setting parameter reassignTemp to 335
TCL: Setting parameter langevinTemp to 335
TCL: Running for 4000 steps
TCL: Setting parameter reassignTemp to 334
TCL: Setting parameter langevinTemp to 334
TCL: Running for 4000 steps
ETITLE: TS BOND ANGLE DIHED IMPRP ELECT VDW BOUNDARY MISC KINETIC TOTAL TEMP POTENTIAL TOTAL3 TEMPAVG PRESSURE GPRESSURE VOLUME PRESSAVG GPRESSAVG
ENERGY: 270000 104.9145 215.6878 76.7020 13.0500 -63995.6198 5737.2429 0.0000 0.0000 12677.3359 -45170.6866 335.3850 -57848.0226 -45159.6366 335.1553 -644.3394 -591.1414 200844.9532 -627.9914 -628.0037
TCL: Setting parameter reassignTemp to 333
TCL: Setting parameter langevinTemp to 333
TCL: Running for 4000 steps
ETITLE: TS BOND ANGLE DIHED IMPRP ELECT VDW BOUNDARY MISC KINETIC TOTAL TEMP POTENTIAL TOTAL3 TEMPAVG PRESSURE GPRESSURE VOLUME PRESSAVG GPRESSAVG
ENERGY: 270000 104.9145 215.6878 76.7020 13.0500 -63995.6198 5737.2429 0.0000 0.0000 12676.3949 -45171.6277 335.3601 -57848.0226 -45165.5321 335.3601 -652.4830 -590.1681 200844.9532 -652.4830 -590.1681
TCL: Setting parameter reassignTemp to 332
TCL: Setting parameter langevinTemp to 332
TCL: Running for 4000 steps
TCL: Setting parameter reassignTemp to 331
TCL: Setting parameter langevinTemp to 331
TCL: Running for 4000 steps
ETITLE: TS BOND ANGLE DIHED IMPRP ELECT VDW BOUNDARY MISC KINETIC TOTAL TEMP POTENTIAL TOTAL3 TEMPAVG PRESSURE GPRESSURE VOLUME PRESSAVG GPRESSAVG
ENERGY: 280000 120.0896 203.1500 94.0375 11.0228 -64027.6983 5777.7065 0.0000 0.0000 12406.7371 -45414.9547 328.2262 -57821.6918 -45411.0975 331.6489 -604.7581 -559.0098 200844.9532 -685.2024 -685.0132
TCL: Setting parameter reassignTemp to 330
TCL: Setting parameter langevinTemp to 330
TCL: Running for 4000 steps
TCL: Setting parameter reassignTemp to 329
TCL: Setting parameter langevinTemp to 329
TCL: Running for 4000 steps
ETITLE: TS BOND ANGLE DIHED IMPRP ELECT VDW BOUNDARY MISC KINETIC TOTAL TEMP POTENTIAL TOTAL3 TEMPAVG PRESSURE GPRESSURE VOLUME PRESSAVG GPRESSAVG
ENERGY: 290000 123.5871 204.5215 84.3293 9.5237 -64254.6768 5710.9745 0.0000 0.0000 12572.3698 -45549.3710 332.6081 -58121.7408 -45537.6996 329.6346 -671.1620 -694.4924 200844.9532 -710.3248 -710.2629
TCL: Setting parameter reassignTemp to 328
TCL: Setting parameter langevinTemp to 328
TCL: Running for 4000 steps
ETITLE: TS BOND ANGLE DIHED IMPRP ELECT VDW BOUNDARY MISC KINETIC TOTAL TEMP POTENTIAL TOTAL3 TEMPAVG PRESSURE GPRESSURE VOLUME PRESSAVG GPRESSAVG
ENERGY: 290000 123.5871 204.5215 84.3293 9.5237 -64254.6768 5710.9745 0.0000 0.0000 12571.4294 -45550.3114 332.5832 -58121.7408 -45543.4414 332.5832 -672.0806 -693.7583 200844.9532 -672.0806 -693.7583
TCL: Setting parameter reassignTemp to 327
TCL: Setting parameter langevinTemp to 327
TCL: Running for 4000 steps
TCL: Setting parameter reassignTemp to 326
TCL: Setting parameter langevinTemp to 326
TCL: Running for 4000 steps
ETITLE: TS BOND ANGLE DIHED IMPRP ELECT VDW BOUNDARY MISC KINETIC TOTAL TEMP POTENTIAL TOTAL3 TEMPAVG PRESSURE GPRESSURE VOLUME PRESSAVG GPRESSAVG
ENERGY: 300000 121.2914 173.7793 72.6192 10.4533 -64399.4932 5818.0179 0.0000 0.0000 12406.4798 -45796.8523 328.2194 -58203.3321 -45795.7091 327.3474 -773.2242 -752.7000 200844.9532 -703.9906 -704.0637
TCL: Setting parameter reassignTemp to 325
TCL: Setting parameter langevinTemp to 325
TCL: Running for 4000 steps
TCL: Setting parameter reassignTemp to 324
TCL: Setting parameter langevinTemp to 324
TCL: Running for 4000 steps
ETITLE: TS BOND ANGLE DIHED IMPRP ELECT VDW BOUNDARY MISC KINETIC TOTAL TEMP POTENTIAL TOTAL3 TEMPAVG PRESSURE GPRESSURE VOLUME PRESSAVG GPRESSAVG
ENERGY: 310000 112.1399 198.0611 79.6718 11.7750 -64515.8934 5802.5066 0.0000 0.0000 12150.2731 -46161.4659 321.4413 -58311.7390 -46154.7571 324.5409 -730.7937 -653.9266 200844.9532 -732.0193 -731.8473
TCL: Setting parameter reassignTemp to 323
TCL: Setting parameter langevinTemp to 323
TCL: Running for 4000 steps
ETITLE: TS BOND ANGLE DIHED IMPRP ELECT VDW BOUNDARY MISC KINETIC TOTAL TEMP POTENTIAL TOTAL3 TEMPAVG PRESSURE GPRESSURE VOLUME PRESSAVG GPRESSAVG
ENERGY: 310000 112.1399 198.0611 79.6718 11.7750 -64515.8934 5802.5066 0.0000 0.0000 12149.3515 -46162.3875 321.4169 -58311.7390 -46155.5589 321.4169 -731.5889 -654.1015 200844.9532 -731.5889 -654.1015
TCL: Setting parameter reassignTemp to 322
TCL: Setting parameter langevinTemp to 322
TCL: Running for 4000 steps
TCL: Setting parameter reassignTemp to 321
TCL: Setting parameter langevinTemp to 321
TCL: Running for 4000 steps
ETITLE: TS BOND ANGLE DIHED IMPRP ELECT VDW BOUNDARY MISC KINETIC TOTAL TEMP POTENTIAL TOTAL3 TEMPAVG PRESSURE GPRESSURE VOLUME PRESSAVG GPRESSAVG
ENERGY: 320000 114.2103 204.3339 77.9859 6.5411 -64982.1138 5966.5762 0.0000 0.0000 12219.1730 -46393.2934 323.2641 -58612.4664 -46388.4873 320.9724 -655.9635 -628.2791 200844.9532 -823.2414 -823.3279
TCL: Setting parameter reassignTemp to 320
TCL: Setting parameter langevinTemp to 320
TCL: Running for 4000 steps
TCL: Setting parameter reassignTemp to 319
TCL: Setting parameter langevinTemp to 319
TCL: Running for 4000 steps
