Info: SIMULATION PARAMETERS:
Info: TIMESTEP               2
Info: NUMBER OF STEPS        0
Info: STEPS PER CYCLE        10
Info: PERIODIC CELL BASIS 1  61.513 0 0
Info: PERIODIC CELL BASIS 2  0 63.74 0
Info: PERIODIC CELL BASIS 3  0 0 51.225
Info: PERIODIC CELL CENTER   19.3088 25.5217 5.08934
Info: WRAPPING WATERS AROUND PERIODIC BOUNDARIES ON OUTPUT.
Info: WRAPPING ALL CLUSTERS AROUND PERIODIC BOUNDARIES ON OUTPUT.
Info: FIRST LDB TIMESTEP     50
Info: LAST LDB TIMESTEP     -1
Info: HOM BACKGROUND SCALING 1
Info: PME BACKGROUND SCALING 1
Info: REMOVING LOAD FROM NODE 0
Info: REMOVING PATCHES FROM PROCESSOR 0
Info: MIN ATOMS PER PATCH    40
Info: VELOCITY FILE          ../2_sa/tc5b_wb_sa.restart.vel
Info: CENTER OF MASS MOVING INITIALLY? NO
Info: DIELECTRIC             1
Info: EXCLUDE                SCALED ONE-FOUR
Info: 1-4 ELECTROSTATICS SCALED BY 1
Info: MODIFIED 1-4 VDW PARAMETERS WILL BE USED
Info: DCD FILENAME           ./tc5b_wb_eq.dcd
Info: DCD FREQUENCY          10000
Info: DCD FIRST STEP         10000
Info: DCD FILE WILL CONTAIN UNIT CELL DATA
Info: XST FILENAME           ./tc5b_wb_eq.xst
Info: XST FREQUENCY          10000
Info: NO VELOCITY DCD OUTPUT
Info: NO FORCE DCD OUTPUT
Info: OUTPUT FILENAME        ./tc5b_wb_eq
Info: RESTART FILENAME       ./tc5b_wb_eq.restart
Info: RESTART FREQUENCY      10000
Info: BINARY RESTART FILES WILL BE USED
Info: SWITCHING ACTIVE
Info: SWITCHING ON           10
Info: SWITCHING OFF          12
Info: PAIRLIST DISTANCE      13.5
Info: PAIRLIST SHRINK RATE   0.01
Info: PAIRLIST GROW RATE     0.01
Info: PAIRLIST TRIGGER       0.3
Info: PAIRLISTS PER CYCLE    2
Info: PAIRLISTS ENABLED
Info: MARGIN                 0.48
Info: HYDROGEN GROUP CUTOFF  2.5
Info: PATCH DIMENSION        16.48
Info: ENERGY OUTPUT STEPS    10000
Info: CROSSTERM ENERGY INCLUDED IN DIHEDRAL
Info: TIMING OUTPUT STEPS    100000
Info: PRESSURE OUTPUT STEPS  10000
Info: LANGEVIN DYNAMICS ACTIVE
Info: LANGEVIN TEMPERATURE   310
Info: LANGEVIN USING BBK INTEGRATOR
Info: LANGEVIN DAMPING COEFFICIENT IS 5 INVERSE PS
Info: LANGEVIN DYNAMICS NOT APPLIED TO HYDROGENS
Info: LANGEVIN PISTON PRESSURE CONTROL ACTIVE
Info:        TARGET PRESSURE IS 1.01325 BAR
Info:     OSCILLATION PERIOD IS 100 FS
Info:             DECAY TIME IS 50 FS
Info:     PISTON TEMPERATURE IS 310 K
Info:       PRESSURE CONTROL IS GROUP-BASED
Info:    INITIAL STRAIN RATE IS 0 0 0
Info:       CELL FLUCTUATION IS ISOTROPIC
Info: PARTICLE MESH EWALD (PME) ACTIVE
Info: PME TOLERANCE               1e-06
Info: PME EWALD COEFFICIENT       0.257952
Info: PME INTERPOLATION ORDER     4
Info: PME GRID DIMENSIONS         64 64 64
Info: PME MAXIMUM GRID SPACING    1.5
Info: FULL ELECTROSTATIC EVALUATION FREQUENCY      2
Info: USING VERLET I (r-RESPA) MTS SCHEME.
Info: C1 SPLITTING OF LONG RANGE ELECTROSTATICS
Info: PLACING ATOMS IN PATCHES BY HYDROGEN GROUPS
Info: RIGID BONDS TO HYDROGEN : WATER
Info:         ERROR TOLERANCE : 1e-08
Info:          MAX ITERATIONS : 100
Info: RIGID WATER USING SETTLE ALGORITHM
Info: RANDOM NUMBER SEED     1553630547
Info: USE HYDROGEN BONDS?    NO
Info: COORDINATE PDB         ../tc5b_wb.pdb
Info: STRUCTURE FILE         ../tc5b_wb.psf
Info: PARAMETER file: CHARMM format!
Info: PARAMETERS             ../par_all27_prot_lipid.prm
Info: USING ARITHMETIC MEAN TO COMBINE L-J SIGMA PARAMETERS
Info: BINARY COORDINATES     ../2_sa/tc5b_wb_sa.restart.coor
Info: SUMMARY OF PARAMETERS:
Info: 179 BONDS
Info: 450 ANGLES
Info: 566 DIHEDRAL
Info: 46 IMPROPER
Info: 6 CROSSTERM
Info: 119 VDW
Info: 0 VDW_PAIRS
Info: 0 NBTHOLE_PAIRS
Info: STRUCTURE SUMMARY:
Info: 18869 ATOMS
Info: 12686 BONDS
Info: 6753 ANGLES
Info: 843 DIHEDRALS
Info: 49 IMPROPERS
Info: 18 CROSSTERMS
Info: 0 EXCLUSIONS
Info: 18564 RIGID BONDS
Info: 38043 DEGREES OF FREEDOM
Info: 6343 HYDROGEN GROUPS
Info: 4 ATOMS IN LARGEST HYDROGEN GROUP
Info: 6343 MIGRATION GROUPS
Info: 4 ATOMS IN LARGEST MIGRATION GROUP
Info: TOTAL MASS = 113685 amu
Info: TOTAL CHARGE = 1.88127e-07 e
Info: MASS DENSITY = 0.939944 g/cm^3
Info: ATOM DENSITY = 0.0939481 atoms/A^3
Info: ADDED 20251 IMPLICIT EXCLUSIONS
Info: NONBONDED TABLE R-SQUARED SPACING: 0.0625
Info: NONBONDED TABLE SIZE: 769 POINTS
Info: REMOVING COM VELOCITY 0.0303079 -0.0171152 0.0370464
TCL: Running for 2500000 steps
ETITLE: TS BOND ANGLE DIHED IMPRP ELECT VDW BOUNDARY MISC KINETIC TOTAL TEMP POTENTIAL TOTAL3 TEMPAVG PRESSURE GPRESSURE VOLUME PRESSAVG GPRESSAVG
ENERGY: 0 128.3760 190.9347 82.6736 8.5203 -65739.7759 5979.8968 0.0000 0.0000 11625.5440 -47723.8306 307.5593 -59349.3746 -47693.8611 307.5593 -1021.7720 -964.7607 200844.9532 -1021.7720 -964.7607
ENERGY: 500000 122.8604 199.9483 62.8252 9.3622 -66981.4985 6341.1103 0.0000 0.0000 11652.2675 -48593.1245 308.2663 -60245.3920 -48551.0710 308.5353 184.5180 188.3921 187583.9114 3.3535 3.4462
ENERGY: 1000000 134.7446 205.9469 79.2927 12.6797 -66679.4600 6033.1680 0.0000 0.0000 11627.6599 -48585.9682 307.6153 -60213.6281 -48559.6188 308.8179 -215.2125 -196.4219 186418.9380 3.5463 3.5140
ENERGY: 1500000 137.6228 197.9231 81.4584 9.6284 -66613.3653 6112.6633 0.0000 0.0000 11733.0439 -48341.0254 310.4033 -60074.0693 -48304.2923 309.2821 -311.7904 -232.4552 188318.9883 2.7508 2.7266
ENERGY: 2000000 126.9906 194.0445 76.5140 8.9027 -66915.6534 6243.2466 0.0000 0.0000 11654.9371 -48611.0180 308.3369 -60265.9551 -48582.9971 308.9285 16.9739 50.7694 187704.8508 1.9392 1.8854
ENERGY: 2500000 105.9057 178.0031 77.7690 6.4327 -66698.7999 6089.5762 0.0000 0.0000 11642.3833 -48598.7299 308.0048 -60241.1131 -48559.0216 308.7734 -133.0436 -128.5874 187805.6789 1.1730 1.0892
